*Heading
 Bulkhead model with 1st order tets for MCNP6 Class
** Job name: um_bulhead_tets_02 Model name: Model-1
** Generated by: Abaqus/CAE 6.13-1
*Preprint, echo=NO, model=NO, history=NO, contact=NO
**
** PARTS
**
*Part, name=Part-back_wall
*Node
      1,           7.,          17.,          14.
      2,           7.,          16.,          14.
      3,           7.,          16.,           0.
      4,           7.,          17.,           0.
      5,          -7.,          16.,          14.
      6,          -7.,          16.,           0.
      7,          -7.,          17.,           0.
      8,          -7.,          17.,          14.
      9,           7.,          16.,   13.2631578
     10,           7.,          16.,   12.5263157
     11,           7.,          16.,   11.7894735
     12,           7.,          16.,   11.0526314
     13,           7.,          16.,   10.3157892
     14,           7.,          16.,   9.57894707
     15,           7.,          16.,   8.84210491
     16,           7.,          16.,   8.10526276
     17,           7.,          16.,   7.36842108
     18,           7.,          16.,   6.63157892
     19,           7.,          16.,   5.89473677
     20,           7.,          16.,   5.15789461
** ... 1090 like lines cut
*Element, type=C3D4
   1,  717,  801,  802,  803
   2,  415,  801,  804,  805
   3,  771,  806,  772,  452
   4,  807,  280,  279,  808
   5,  807,  809,  279,  297
   6,  810,  185,  498,  811
   7,  812,  612,  813,  630
   8,  812,  611,  814,  612
   9,  812,  287,  814,  288
  10,  305,  630,  815,  812
  11,  816,  306,  305,  812
  12,  812,  305,  813,  287
  13,  817,  660,  661,  347
  14,  818,  819,  680,  662
  15,  820,  448,  821,  430
  16,  820,  449,  448,  430
  17,  822,  823,  756,  738
  18,  820,  756,  757,  775
  19,  820,  774,  775,  821
  20,  824,  773,  825,  774
** ... 4038 like lines cut
*Nset, nset=Set-material_tally_026, generate
    1,  1110,     1
*Elset, elset=Set-material_tally_026, generate
    1,  4058,     1
*Nset, nset=Set-2, generate
    1,  1110,     1
*Elset, elset=Set-2, generate
    1,  4058,     1
** Section: Section-iron
*Solid Section, elset=Set-2, material=Material-iron_026
,
*End Part
**  
*Part, name=Part-front_wall
*Node
      1,           7.,           2.,          14.
      2,           7.,           0.,          14.
      3,           7.,           0.,           0.
      4,           7.,           2.,           0.
      5,          -7.,           0.,          14.
      6,          -7.,           0.,           0.
      7,          -7.,           2.,           0.
      8,          -7.,           2.,          14.
      9,           7.,   1.33333337,          14.
     10,           7.,  0.666666687,          14.
     11,           7.,           0.,   13.2631578
     12,           7.,           0.,   12.5263157
     13,           7.,           0.,   11.7894735
     14,           7.,           0.,   11.0526314
     15,           7.,           0.,   10.3157892
     16,           7.,           0.,   9.57894707
     17,           7.,           0.,   8.84210491
     18,           7.,           0.,   8.10526276
     19,           7.,           0.,   7.36842108
     20,           7.,           0.,   6.63157892
** ... 1637 like lines cut
*Element, type=C3D4
   1,  953,  954,  955,  956
   2,  953,  957,  958,  959
   3,  953,  957,  959,  960
   4,  953,  340,  956,  961
   5,  953,  962,  960,  339
   6,  953,  961,  339,  340
   7,  963,  964,  965,  966
   8,  963,  964,  967,  968
   9,  963,  969,  399,  417
  10,  963,  970,  971,  972
  11,  963,  969,  417,  973
  12,  963,  974,  973,  418
  13,  970,  969,  965,  963
  14,  975,  970,  969,  965
  15,  976,  977,  978,  979
  16,  952,  949,  980,  950
  17,  979,  290,  981,  977
  18,  979,  982,  271,  983
  19,  979,  984,  983,  289
  20,  979,  985,  976,  986
** ... 6875 like lines cut
*Nset, nset=Set-material_tally_026, generate
    1,  1657,     1
*Elset, elset=Set-material_tally_026, generate
    1,  6895,     1
*Nset, nset=Set-2, generate
    1,  1657,     1
*Elset, elset=Set-2, generate
    1,  6895,     1
** Section: Section-iron
*Solid Section, elset=Set-2, material=Material-iron_026
,
*End Part
**  
*Part, name=Part-left_air
*Node
      1,          -1.,          16.,          14.
      2,          -1.,          10.,          14.
      3,          -1.,          10.,           0.
      4,          -1.,          16.,           0.
      5,          -7.,          10.,          14.
      6,          -7.,          10.,           0.
      7,          -7.,          16.,           0.
      8,          -7.,          16.,          14.
      9,          -1.,        15.25,          14.
     10,          -1.,         14.5,          14.
     11,          -1.,        13.75,          14.
     12,          -1.,          13.,          14.
     13,          -1.,        12.25,          14.
     14,          -1.,         11.5,          14.
     15,          -1.,        10.75,          14.
     16,          -1.,          10.,   13.2631578
     17,          -1.,          10.,   12.5263157
     18,          -1.,          10.,   11.7894735
     19,          -1.,          10.,   11.0526314
     20,          -1.,          10.,   10.3157892
** ... 1722 like lines cut
*Element, type=C3D4
   1,  687,  739,  740,  741
   2,  742,  743,  744,  745
   3,  742,  746,  747,  748
   4,  742,  749,  750,  743
   5,  742,  745,  751,  749
   6,  752,  753,  754,  755
   7,  752,  756,  753,  757
   8,  752,  758,  759,  760
   9,  752,  761,  762,  754
  10,  752,  763,  764,  757
  11,  752,  757,  764,  756
  12,  752,  761,  765,  758
  13,  766,  767,  768,  769
  14,  766,  759,  770,  763
  15,  771,  772,  773,  339
  16,  774,  775,  768,  770
  17,  766,  767,  776,  775
  18,  777,  778,  779,  780
  19,  781,  112,  738,  731
  20,  391,  398,  782,  783
** ... 8096 like lines cut
*Nset, nset=Set-material_tally_02, generate
    1,  1742,     1
*Elset, elset=Set-material_tally_02, generate
    1,  8116,     1
*Nset, nset=Set-2, generate
    1,  1742,     1
*Elset, elset=Set-2, generate
    1,  8116,     1
** Section: Section-air
*Solid Section, elset=Set-2, material=Material-air_02
,
*End Part
**  
*Part, name=Part-left_liner
*Node
      1,          -1.,           3.,          14.
      2,          -1.,           2.,          14.
      3,          -1.,           2.,           0.
      4,          -1.,           3.,           0.
      5,          -7.,           2.,          14.
      6,          -7.,           2.,           0.
      7,          -7.,           3.,           0.
      8,          -7.,           3.,          14.
      9,          -1.,         2.75,          14.
     10,          -1.,          2.5,          14.
     11,          -1.,         2.25,          14.
     12,          -1.,           2.,         13.5
     13,          -1.,           2.,          13.
     14,          -1.,           2.,         12.5
     15,          -1.,           2.,          12.
     16,          -1.,           2.,         11.5
     17,          -1.,           2.,          11.
     18,          -1.,           2.,         10.5
     19,          -1.,           2.,          10.
     20,          -1.,           2.,          9.5
** ... 1540 like lines cut
*Element, type=C3D4
   1,  995,  996,  997,  998
   2,  995,  999, 1000,  824
   3,  995, 1001,  998,  997
   4,  995, 1001,  997, 1002
   5,  565, 1003, 1004, 1005
   6, 1005, 1006, 1007,  565
   7, 1005, 1008, 1004, 1007
   8, 1005, 1009, 1006, 1003
   9, 1005, 1010, 1011, 1012
  10, 1013, 1014, 1015, 1016
  11, 1013, 1016, 1017, 1018
  12, 1016,  659, 1018,  648
  13, 1016, 1018,  659, 1019
  14,  397,  386, 1020, 1021
  15,  748,   53, 1022,  759
  16, 1016,  320, 1023, 1024
  17, 1025,  459, 1026, 1027
  18, 1025, 1026, 1028, 1029
  19, 1025,  784, 1030,  773
  20, 1025,  773, 1030, 1031
** ... 6166 like lines cut
*Nset, nset=Set-material_tally_082, generate
    1,  1560,     1
*Elset, elset=Set-material_tally_082, generate
    1,  6186,     1
*Nset, nset=Set-3, generate
    1,  1560,     1
*Elset, elset=Set-3, generate
    1,  6186,     1
** Section: Section-lead
*Solid Section, elset=Set-3, material=Material-lead_082
,
*End Part
**  
*Part, name=Part-left_water
*Node
      1,          -1.,          10.,          14.
      2,          -1.,           3.,          14.
      3,          -1.,           3.,           0.
      4,          -1.,          10.,           0.
      5,          -7.,           3.,          14.
      6,          -7.,           3.,           0.
      7,          -7.,          10.,           0.
      8,          -7.,          10.,          14.
      9,          -1.,   9.22222233,          14.
     10,          -1.,   8.44444466,          14.
     11,          -1.,   7.66666651,          14.
     12,          -1.,   6.88888884,          14.
     13,          -1.,   6.11111116,          14.
     14,          -1.,   5.33333349,          14.
     15,          -1.,   4.55555534,          14.
     16,          -1.,   3.77777767,          14.
     17,          -1.,           3.,   13.2631578
     18,          -1.,           3.,   12.5263157
     19,          -1.,           3.,   11.7894735
     20,          -1.,           3.,   11.0526314
** ... 1896 like lines cut
*Element, type=C3D4
   1,  793,  794,  795,  796
   2,  793,  797,  798,  799
   3,  793,  799,  798,  796
   4,  793,  799,  800,  797
   5,  801,  802,  803,  804
   6,  801,  805,  804,  803
   7,  801,  806,  805,  807
   8,  808,  801,  802,  803
   9,  809,  810,  503,  811
  10,  812,  813,  814,  815
  11,  812,  816,  817,  814
  12,  812,  813,  818,  797
  13,  819,  820,  821,  822
  14,  819,  800,  820,  796
  15,  823,  156,  824,  825
  16,  819,  800,  821,  820
  17,  819,  826,  820,  827
  18,  356,  828,  355,  363
  19,  819,  799,  829,  830
  20,  831,  806,  832,  833
** ... 8979 like lines cut
*Nset, nset=Set-material_tally_01, generate
    1,  1916,     1
*Elset, elset=Set-material_tally_01, generate
    1,  8999,     1
*Nset, nset=Set-2, generate
    1,  1916,     1
*Elset, elset=Set-2, generate
    1,  8999,     1
** Section: Section-water
*Solid Section, elset=Set-2, material=Material-water_01
,
*End Part
**  
*Part, name=Part-right_air
*Node
      1,           7.,          16.,          14.
      2,           7.,          10.,          14.
      3,           7.,          10.,           0.
      4,           7.,          16.,           0.
      5,           1.,          10.,          14.
      6,           1.,          10.,           0.
      7,           1.,          16.,           0.
      8,           1.,          16.,          14.
      9,           7.,        15.25,          14.
     10,           7.,         14.5,          14.
     11,           7.,        13.75,          14.
     12,           7.,          13.,          14.
     13,           7.,        12.25,          14.
     14,           7.,         11.5,          14.
     15,           7.,        10.75,          14.
     16,           7.,          10.,   13.2631578
     17,           7.,          10.,   12.5263157
     18,           7.,          10.,   11.7894735
     19,           7.,          10.,   11.0526314
     20,           7.,          10.,   10.3157892
** ... 1722 like lines cut
*Element, type=C3D4
   1,  687,  739,  740,  741
   2,  742,  743,  744,  745
   3,  742,  746,  747,  748
   4,  742,  749,  750,  743
   5,  742,  745,  751,  749
   6,  752,  753,  754,  755
   7,  752,  756,  753,  757
   8,  752,  758,  759,  760
   9,  752,  761,  762,  754
  10,  752,  763,  764,  757
  11,  752,  757,  764,  756
  12,  752,  761,  765,  758
  13,  766,  767,  768,  769
  14,  766,  759,  770,  763
  15,  771,  772,  773,  339
  16,  774,  775,  768,  770
  17,  766,  767,  776,  775
  18,  777,  778,  779,  780
  19,  781,  112,  738,  731
  20,  391,  398,  782,  783
** ... 8096 like lines cut
*Nset, nset=Set-material_tally_02, generate
    1,  1742,     1
*Elset, elset=Set-material_tally_02, generate
    1,  8116,     1
*Nset, nset=Set-2, generate
    1,  1742,     1
*Elset, elset=Set-2, generate
    1,  8116,     1
** Section: Section-air
*Solid Section, elset=Set-2, material=Material-air_02
,
*End Part
**  
*Part, name=Part-right_liner
*Node
      1,           7.,           4.,          14.
      2,           7.,           2.,          14.
      3,           7.,           2.,           0.
      4,           7.,           4.,           0.
      5,           1.,           2.,          14.
      6,           1.,           2.,           0.
      7,           1.,           4.,           0.
      8,           1.,           4.,          14.
      9,           7.,   3.33333325,          14.
     10,           7.,   2.66666675,          14.
     11,           7.,           2.,   13.2631578
     12,           7.,           2.,   12.5263157
     13,           7.,           2.,   11.7894735
     14,           7.,           2.,   11.0526314
     15,           7.,           2.,   10.3157892
     16,           7.,           2.,   9.57894707
     17,           7.,           2.,   8.84210491
     18,           7.,           2.,   8.10526276
     19,           7.,           2.,   7.36842108
     20,           7.,           2.,   6.63157892
** ... 778 like lines cut
*Element, type=C3D4
   1, 469, 470, 471, 472
   2, 470, 473, 472, 474
   3, 470, 280, 473, 474
   4, 470, 475, 288, 281
   5, 417, 471, 476, 477
   6, 471, 476, 477, 470
   7, 472, 469, 478, 471
   8, 470, 288, 475, 476
   9, 470, 477, 473, 287
  10, 479, 373, 480, 481
  11, 374, 480, 482, 479
  12, 483, 484, 485, 486
  13, 479, 480, 482, 487
  14, 479, 488, 489, 490
  15, 479, 480, 487, 488
  16, 491, 492, 124, 493
  17, 491, 123, 492, 494
  18, 495, 496, 491, 494
  19, 497, 366, 358, 359
  20, 498, 499, 500, 501
** ... 3207 like lines cut
*Nset, nset=Set-material_tally_082, generate
   1,  798,    1
*Elset, elset=Set-material_tally_082, generate
    1,  3227,     1
*Nset, nset=Set-2, generate
   1,  798,    1
*Elset, elset=Set-2, generate
    1,  3227,     1
** Section: Section-lead
*Solid Section, elset=Set-2, material=Material-lead_082
,
*End Part
**  
*Part, name=Part-right_water
*Node
      1,           7.,          10.,          14.
      2,           7.,           4.,          14.
      3,           7.,           4.,           0.
      4,           7.,          10.,           0.
      5,           1.,           4.,          14.
      6,           1.,           4.,           0.
      7,           1.,          10.,           0.
      8,           1.,          10.,          14.
      9,           7.,         9.25,          14.
     10,           7.,          8.5,          14.
     11,           7.,         7.75,          14.
     12,           7.,           7.,          14.
     13,           7.,         6.25,          14.
     14,           7.,          5.5,          14.
     15,           7.,         4.75,          14.
     16,           7.,           4.,   13.2631578
     17,           7.,           4.,   12.5263157
     18,           7.,           4.,   11.7894735
     19,           7.,           4.,   11.0526314
     20,           7.,           4.,   10.3157892
** ... 1722 like lines cut
*Element, type=C3D4
   1,  687,  739,  740,  741
   2,  742,  743,  744,  745
   3,  742,  746,  747,  748
   4,  742,  749,  750,  743
   5,  742,  745,  751,  749
   6,  752,  753,  754,  755
   7,  752,  756,  753,  757
   8,  752,  758,  759,  760
   9,  752,  761,  762,  754
  10,  752,  763,  764,  757
  11,  752,  757,  764,  756
  12,  752,  761,  765,  758
  13,  766,  767,  768,  769
  14,  766,  759,  770,  763
  15,  771,  772,  773,  339
  16,  774,  775,  768,  770
  17,  766,  767,  776,  775
  18,  777,  778,  779,  780
  19,  781,  112,  738,  731
  20,  391,  398,  782,  783
** ... 8096 like lines cut
*Nset, nset=Set-material_tally_01, generate
    1,  1742,     1
*Elset, elset=Set-material_tally_01, generate
    1,  8116,     1
*Nset, nset=Set-2, generate
    1,  1742,     1
*Elset, elset=Set-2, generate
    1,  8116,     1
** Section: Section-water
*Solid Section, elset=Set-2, material=Material-water_01
,
*End Part
**  
*Part, name=Part-stiffener
*Node
      1,           8.,          16.,          14.
      2,           8.,           2.,          14.
      3,           8.,           2.,           0.
      4,           8.,          16.,           0.
      5,           6.,           2.,          14.
      6,           6.,           2.,           0.
      7,           6.,          16.,           0.
      8,           6.,          16.,          14.
      9,           8.,   15.2631578,          14.
     10,           8.,   14.5263157,          14.
     11,           8.,   13.7894735,          14.
     12,           8.,   13.0526314,          14.
     13,           8.,   12.3157892,          14.
     14,           8.,   11.5789471,          14.
     15,           8.,   10.8421049,          14.
     16,           8.,   10.1052628,          14.
     17,           8.,    9.3684206,          14.
     18,           8.,    8.6315794,          14.
     19,           8.,   7.89473677,          14.
     20,           8.,   7.15789461,          14.
** ... 1633 like lines cut
*Element, type=C3D4
   1,  953,  954,  955,  956
   2,  953,  695,  957,  954
   3,  953,  677,  954,  956
   4,  953,  957,  695,  696
   5,  953,  958,  959,  960
   6,  953,  957,  696,  960
   7,  953,  960,  678,  958
   8,  961,  962,  963,  964
   9,  961,  962,  965,  966
  10,  961,  822,  967,  966
  11,  961,  840,  968,  967
  12,  961,  967,  822,  840
  13,  969,  970,  971,  972
  14,  969,  973,  974,  972
  15,  969,  970,  283,  975
  16,  969,  974,  300,  972
  17,  969,  970,  972,  301
  18,  969,  283,  970,  301
  19,  976,  977,  978,  979
  20,  976,  725,  980,  981
** ... 6851 like lines cut
*Nset, nset=Set-material_tally_026, generate
    1,  1653,     1
*Elset, elset=Set-material_tally_026, generate
    1,  6871,     1
*Nset, nset=Set-2, generate
    1,  1653,     1
*Elset, elset=Set-2, generate
    1,  6871,     1
** Section: Section-iron
*Solid Section, elset=Set-2, material=Material-iron_026
,
*End Part
**  
**
** ASSEMBLY
**
*Assembly, name=Assembly
**  
*Instance, name=Part-stiffener-1, part=Part-stiffener
         -7.,           0.,           0.
*End Instance
**  
*Instance, name=Part-left_liner-1, part=Part-left_liner
*End Instance
**  
*Instance, name=Part-left_water-1, part=Part-left_water
*End Instance
**  
*Instance, name=Part-front_wall-1, part=Part-front_wall
*End Instance
**  
*Instance, name=Part-left_air-1, part=Part-left_air
*End Instance
**  
*Instance, name=Part-back_wall-1, part=Part-back_wall
*End Instance
**  
*Instance, name=Part-right_liner-1, part=Part-right_liner
*End Instance
**  
*Instance, name=Part-right_water-1, part=Part-right_water
*End Instance
**  
*Instance, name=Part-right_air-1, part=Part-right_air
*End Instance
**  
*End Assembly
** 
** MATERIALS
** 
*Material, name=Material-air_02
*Density
 -0.001205,
*Material, name=Material-iron_026
*Density
 -7.874,
*Material, name=Material-lead_082
*Density
 -11.35,
*Material, name=Material-water_01
*Density
-1.,
