*Heading
 bulkhead model with 1st order hexs for MCNP6 Class
** Job name: um_bulkhead_01 Model name: Model-1
** Generated by: Abaqus/CAE 6.13-1
*Preprint, echo=NO, model=NO, history=NO, contact=NO
**
** PARTS
**
*Part, name=Part-back_wall
*Node
      1,           7.,          17.,          14.
      2,           7.,         16.5,          14.
      3,           7.,          16.,          14.
      4,           7.,          17.,         13.5
      5,           7.,         16.5,         13.5
      6,           7.,          16.,         13.5
      7,           7.,          17.,          13.
      8,           7.,         16.5,          13.
      9,           7.,          16.,          13.
     10,           7.,          17.,         12.5
     11,           7.,         16.5,         12.5
     12,           7.,          16.,         12.5
     13,           7.,          17.,          12.
     14,           7.,         16.5,          12.
     15,           7.,          16.,          12.
     16,           7.,          17.,         11.5
     17,           7.,         16.5,         11.5
     18,           7.,          16.,         11.5
     19,           7.,          17.,          11.
     20,           7.,         16.5,          11.
** ... 2503 like lines cut
*Element, type=C3D8R
   1,   88,   89,   92,   91,    1,    2,    5,    4
   2,   89,   90,   93,   92,    2,    3,    6,    5
   3,   91,   92,   95,   94,    4,    5,    8,    7
   4,   92,   93,   96,   95,    5,    6,    9,    8
   5,   94,   95,   98,   97,    7,    8,   11,   10
   6,   95,   96,   99,   98,    8,    9,   12,   11
   7,   97,   98,  101,  100,   10,   11,   14,   13
   8,   98,   99,  102,  101,   11,   12,   15,   14
   9,  100,  101,  104,  103,   13,   14,   17,   16
  10,  101,  102,  105,  104,   14,   15,   18,   17
  11,  103,  104,  107,  106,   16,   17,   20,   19
  12,  104,  105,  108,  107,   17,   18,   21,   20
  13,  106,  107,  110,  109,   19,   20,   23,   22
  14,  107,  108,  111,  110,   20,   21,   24,   23
  15,  109,  110,  113,  112,   22,   23,   26,   25
  16,  110,  111,  114,  113,   23,   24,   27,   26
  17,  112,  113,  116,  115,   25,   26,   29,   28
  18,  113,  114,  117,  116,   26,   27,   30,   29
  19,  115,  116,  119,  118,   28,   29,   32,   31
  20,  116,  117,  120,  119,   29,   30,   33,   32
** ... 1548 like lines cut
*Nset, nset=Set-material_tally_026, generate
    1,  2523,     1
*Elset, elset=Set-material_tally_026, generate
    1,  1568,     1
*Nset, nset=Set-2, generate
    1,  2523,     1
*Elset, elset=Set-2, generate
    1,  1568,     1
** Section: Section-iron
*Solid Section, elset=Set-2, material=Material-iron_026
,
*End Part
**  
*Part, name=Part-front_wall
*Node
      1,           7.,           2.,          14.
      2,           7.,          1.5,          14.
      3,           7.,           1.,          14.
      4,           7.,          0.5,          14.
      5,           7.,           0.,          14.
      6,           7.,           2.,         13.5
      7,           7.,          1.5,         13.5
      8,           7.,           1.,         13.5
      9,           7.,          0.5,         13.5
     10,           7.,           0.,         13.5
     11,           7.,           2.,          13.
     12,           7.,          1.5,          13.
     13,           7.,           1.,          13.
     14,           7.,          0.5,          13.
     15,           7.,           0.,          13.
     16,           7.,           2.,         12.5
     17,           7.,          1.5,         12.5
     18,           7.,           1.,         12.5
     19,           7.,          0.5,         12.5
     20,           7.,           0.,         12.5
** ... 4185 like lines cut
*Element, type=C3D8R
   1,  146,  147,  152,  151,    1,    2,    7,    6
   2,  147,  148,  153,  152,    2,    3,    8,    7
   3,  148,  149,  154,  153,    3,    4,    9,    8
   4,  149,  150,  155,  154,    4,    5,   10,    9
   5,  151,  152,  157,  156,    6,    7,   12,   11
   6,  152,  153,  158,  157,    7,    8,   13,   12
   7,  153,  154,  159,  158,    8,    9,   14,   13
   8,  154,  155,  160,  159,    9,   10,   15,   14
   9,  156,  157,  162,  161,   11,   12,   17,   16
  10,  157,  158,  163,  162,   12,   13,   18,   17
  11,  158,  159,  164,  163,   13,   14,   19,   18
  12,  159,  160,  165,  164,   14,   15,   20,   19
  13,  161,  162,  167,  166,   16,   17,   22,   21
  14,  162,  163,  168,  167,   17,   18,   23,   22
  15,  163,  164,  169,  168,   18,   19,   24,   23
  16,  164,  165,  170,  169,   19,   20,   25,   24
  17,  166,  167,  172,  171,   21,   22,   27,   26
  18,  167,  168,  173,  172,   22,   23,   28,   27
  19,  168,  169,  174,  173,   23,   24,   29,   28
  20,  169,  170,  175,  174,   24,   25,   30,   29
** ... 3116 like lines cut
*Nset, nset=Set-material_tally_026, generate
    1,  4205,     1
*Elset, elset=Set-material_tally_source_026, generate
    1,  3136,     1
*Nset, nset=Set-2, generate
    1,  4205,     1
*Elset, elset=Set-2, generate
    1,  3136,     1
** Section: Section-iron
*Solid Section, elset=Set-2, material=Material-iron_026
,
*End Part
**  
*Part, name=Part-left_air
*Node
      1,          -1.,          16.,          14.
      2,          -1.,          15.,          14.
      3,          -1.,          14.,          14.
      4,          -1.,          13.,          14.
      5,          -1.,          12.,          14.
      6,          -1.,          11.,          14.
      7,          -1.,          10.,          14.
      8,          -1.,          16.,          13.
      9,          -1.,          15.,          13.
     10,          -1.,          14.,          13.
     11,          -1.,          13.,          13.
     12,          -1.,          12.,          13.
     13,          -1.,          11.,          13.
     14,          -1.,          10.,          13.
     15,          -1.,          16.,          12.
     16,          -1.,          15.,          12.
     17,          -1.,          14.,          12.
     18,          -1.,          13.,          12.
     19,          -1.,          12.,          12.
     20,          -1.,          11.,          12.
** ... 715 like lines cut
*Element, type=C3D8R
  1, 106, 107, 114, 113,   1,   2,   9,   8
  2, 107, 108, 115, 114,   2,   3,  10,   9
  3, 108, 109, 116, 115,   3,   4,  11,  10
  4, 109, 110, 117, 116,   4,   5,  12,  11
  5, 110, 111, 118, 117,   5,   6,  13,  12
  6, 111, 112, 119, 118,   6,   7,  14,  13
  7, 113, 114, 121, 120,   8,   9,  16,  15
  8, 114, 115, 122, 121,   9,  10,  17,  16
  9, 115, 116, 123, 122,  10,  11,  18,  17
 10, 116, 117, 124, 123,  11,  12,  19,  18
 11, 117, 118, 125, 124,  12,  13,  20,  19
 12, 118, 119, 126, 125,  13,  14,  21,  20
 13, 120, 121, 128, 127,  15,  16,  23,  22
 14, 121, 122, 129, 128,  16,  17,  24,  23
 15, 122, 123, 130, 129,  17,  18,  25,  24
 16, 123, 124, 131, 130,  18,  19,  26,  25
 17, 124, 125, 132, 131,  19,  20,  27,  26
 18, 125, 126, 133, 132,  20,  21,  28,  27
 19, 127, 128, 135, 134,  22,  23,  30,  29
 20, 128, 129, 136, 135,  23,  24,  31,  30
** ... 484 like lines cut
*Nset, nset=Set-material_tally_02, generate
   1,  735,    1
*Elset, elset=Set-material_tally_02, generate
   1,  504,    1
*Nset, nset=Set-2, generate
   1,  735,    1
*Elset, elset=Set-2, generate
   1,  504,    1
** Section: Section-air
*Solid Section, elset=Set-2, material=Material-air_02
,
*End Part
**  
*Part, name=Part-left_liner
*Node
      1,          -1.,           3.,          14.
      2,          -1.,         2.75,          14.
      3,          -1.,          2.5,          14.
      4,          -1.,         2.25,          14.
      5,          -1.,           2.,          14.
      6,          -1.,           3.,         13.5
      7,          -1.,         2.75,         13.5
      8,          -1.,          2.5,         13.5
      9,          -1.,         2.25,         13.5
     10,          -1.,           2.,         13.5
     11,          -1.,           3.,          13.
     12,          -1.,         2.75,          13.
     13,          -1.,          2.5,          13.
     14,          -1.,         2.25,          13.
     15,          -1.,           2.,          13.
     16,          -1.,           3.,         12.5
     17,          -1.,         2.75,         12.5
     18,          -1.,          2.5,         12.5
     19,          -1.,         2.25,         12.5
     20,          -1.,           2.,         12.5
** ... 1865 like lines cut
*Element, type=C3D8R
   1,  146,  147,  152,  151,    1,    2,    7,    6
   2,  147,  148,  153,  152,    2,    3,    8,    7
   3,  148,  149,  154,  153,    3,    4,    9,    8
   4,  149,  150,  155,  154,    4,    5,   10,    9
   5,  151,  152,  157,  156,    6,    7,   12,   11
   6,  152,  153,  158,  157,    7,    8,   13,   12
   7,  153,  154,  159,  158,    8,    9,   14,   13
   8,  154,  155,  160,  159,    9,   10,   15,   14
   9,  156,  157,  162,  161,   11,   12,   17,   16
  10,  157,  158,  163,  162,   12,   13,   18,   17
  11,  158,  159,  164,  163,   13,   14,   19,   18
  12,  159,  160,  165,  164,   14,   15,   20,   19
  13,  161,  162,  167,  166,   16,   17,   22,   21
  14,  162,  163,  168,  167,   17,   18,   23,   22
  15,  163,  164,  169,  168,   18,   19,   24,   23
  16,  164,  165,  170,  169,   19,   20,   25,   24
  17,  166,  167,  172,  171,   21,   22,   27,   26
  18,  167,  168,  173,  172,   22,   23,   28,   27
  19,  168,  169,  174,  173,   23,   24,   29,   28
  20,  169,  170,  175,  174,   24,   25,   30,   29
** ... 1324 like lines cut
*Nset, nset=Set-material_tally_082, generate
    1,  1885,     1
*Elset, elset=Set-material_tally_082, generate
    1,  1344,     1
*Nset, nset=Set-3, generate
    1,  1885,     1
*Elset, elset=Set-3, generate
    1,  1344,     1
** Section: Section-lead
*Solid Section, elset=Set-3, material=Material-lead_082
,
*End Part
**  
*Part, name=Part-left_water
*Node
      1,          -1.,          10.,          14.
      2,          -1.,           9.,          14.
      3,          -1.,           8.,          14.
      4,          -1.,           7.,          14.
      5,          -1.,           6.,          14.
      6,          -1.,           5.,          14.
      7,          -1.,           4.,          14.
      8,          -1.,           3.,          14.
      9,          -1.,          10.,          13.
     10,          -1.,           9.,          13.
     11,          -1.,           8.,          13.
     12,          -1.,           7.,          13.
     13,          -1.,           6.,          13.
     14,          -1.,           5.,          13.
     15,          -1.,           4.,          13.
     16,          -1.,           3.,          13.
     17,          -1.,          10.,          12.
     18,          -1.,           9.,          12.
     19,          -1.,           8.,          12.
     20,          -1.,           7.,          12.
** ... 820 like lines cut
*Element, type=C3D8R
  1, 121, 122, 130, 129,   1,   2,  10,   9
  2, 122, 123, 131, 130,   2,   3,  11,  10
  3, 123, 124, 132, 131,   3,   4,  12,  11
  4, 124, 125, 133, 132,   4,   5,  13,  12
  5, 125, 126, 134, 133,   5,   6,  14,  13
  6, 126, 127, 135, 134,   6,   7,  15,  14
  7, 127, 128, 136, 135,   7,   8,  16,  15
  8, 129, 130, 138, 137,   9,  10,  18,  17
  9, 130, 131, 139, 138,  10,  11,  19,  18
 10, 131, 132, 140, 139,  11,  12,  20,  19
 11, 132, 133, 141, 140,  12,  13,  21,  20
 12, 133, 134, 142, 141,  13,  14,  22,  21
 13, 134, 135, 143, 142,  14,  15,  23,  22
 14, 135, 136, 144, 143,  15,  16,  24,  23
 15, 137, 138, 146, 145,  17,  18,  26,  25
 16, 138, 139, 147, 146,  18,  19,  27,  26
 17, 139, 140, 148, 147,  19,  20,  28,  27
 18, 140, 141, 149, 148,  20,  21,  29,  28
 19, 141, 142, 150, 149,  21,  22,  30,  29
 20, 142, 143, 151, 150,  22,  23,  31,  30
** ... 568 like lines cut
*Nset, nset=Set-material_tally_01, generate
   1,  840,    1
*Elset, elset=Set-material_tally_01, generate
   1,  588,    1
*Nset, nset=Set-2, generate
   1,  840,    1
*Elset, elset=Set-2, generate
   1,  588,    1
** Section: Section-water
*Solid Section, elset=Set-2, material=Material-water_01
,
*End Part
**  
*Part, name=Part-right_air
*Node
      1,           7.,          16.,          14.
      2,           7.,          15.,          14.
      3,           7.,          14.,          14.
      4,           7.,          13.,          14.
      5,           7.,          12.,          14.
      6,           7.,          11.,          14.
      7,           7.,          10.,          14.
      8,           7.,          16.,          13.
      9,           7.,          15.,          13.
     10,           7.,          14.,          13.
     11,           7.,          13.,          13.
     12,           7.,          12.,          13.
     13,           7.,          11.,          13.
     14,           7.,          10.,          13.
     15,           7.,          16.,          12.
     16,           7.,          15.,          12.
     17,           7.,          14.,          12.
     18,           7.,          13.,          12.
     19,           7.,          12.,          12.
     20,           7.,          11.,          12.
** ... 715 like lines cut
*Element, type=C3D8R
  1, 106, 107, 114, 113,   1,   2,   9,   8
  2, 107, 108, 115, 114,   2,   3,  10,   9
  3, 108, 109, 116, 115,   3,   4,  11,  10
  4, 109, 110, 117, 116,   4,   5,  12,  11
  5, 110, 111, 118, 117,   5,   6,  13,  12
  6, 111, 112, 119, 118,   6,   7,  14,  13
  7, 113, 114, 121, 120,   8,   9,  16,  15
  8, 114, 115, 122, 121,   9,  10,  17,  16
  9, 115, 116, 123, 122,  10,  11,  18,  17
 10, 116, 117, 124, 123,  11,  12,  19,  18
 11, 117, 118, 125, 124,  12,  13,  20,  19
 12, 118, 119, 126, 125,  13,  14,  21,  20
 13, 120, 121, 128, 127,  15,  16,  23,  22
 14, 121, 122, 129, 128,  16,  17,  24,  23
 15, 122, 123, 130, 129,  17,  18,  25,  24
 16, 123, 124, 131, 130,  18,  19,  26,  25
 17, 124, 125, 132, 131,  19,  20,  27,  26
 18, 125, 126, 133, 132,  20,  21,  28,  27
 19, 127, 128, 135, 134,  22,  23,  30,  29
 20, 128, 129, 136, 135,  23,  24,  31,  30
** ... 484 like lines cut
*Nset, nset=Set-material_tally_02, generate
   1,  735,    1
*Elset, elset=Set-material_tally_02, generate
   1,  504,    1
*Nset, nset=Set-2, generate
   1,  735,    1
*Elset, elset=Set-2, generate
   1,  504,    1
** Section: Section-air
*Solid Section, elset=Set-2, material=Material-air_02
,
*End Part
**  
*Part, name=Part-right_liner
*Node
      1,           7.,           4.,          14.
      2,           7.,          3.5,          14.
      3,           7.,           3.,          14.
      4,           7.,          2.5,          14.
      5,           7.,           2.,          14.
      6,           7.,           4.,         13.5
      7,           7.,          3.5,         13.5
      8,           7.,           3.,         13.5
      9,           7.,          2.5,         13.5
     10,           7.,           2.,         13.5
     11,           7.,           4.,          13.
     12,           7.,          3.5,          13.
     13,           7.,           3.,          13.
     14,           7.,          2.5,          13.
     15,           7.,           2.,          13.
     16,           7.,           4.,         12.5
     17,           7.,          3.5,         12.5
     18,           7.,           3.,         12.5
     19,           7.,          2.5,         12.5
     20,           7.,           2.,         12.5
** ... 1865 like lines cut
*Element, type=C3D8R
   1,  146,  147,  152,  151,    1,    2,    7,    6
   2,  147,  148,  153,  152,    2,    3,    8,    7
   3,  148,  149,  154,  153,    3,    4,    9,    8
   4,  149,  150,  155,  154,    4,    5,   10,    9
   5,  151,  152,  157,  156,    6,    7,   12,   11
   6,  152,  153,  158,  157,    7,    8,   13,   12
   7,  153,  154,  159,  158,    8,    9,   14,   13
   8,  154,  155,  160,  159,    9,   10,   15,   14
   9,  156,  157,  162,  161,   11,   12,   17,   16
  10,  157,  158,  163,  162,   12,   13,   18,   17
  11,  158,  159,  164,  163,   13,   14,   19,   18
  12,  159,  160,  165,  164,   14,   15,   20,   19
  13,  161,  162,  167,  166,   16,   17,   22,   21
  14,  162,  163,  168,  167,   17,   18,   23,   22
  15,  163,  164,  169,  168,   18,   19,   24,   23
  16,  164,  165,  170,  169,   19,   20,   25,   24
  17,  166,  167,  172,  171,   21,   22,   27,   26
  18,  167,  168,  173,  172,   22,   23,   28,   27
  19,  168,  169,  174,  173,   23,   24,   29,   28
  20,  169,  170,  175,  174,   24,   25,   30,   29
** ... 1324 like lines cut
*Nset, nset=Set-material_tally_082, generate
    1,  1885,     1
*Elset, elset=Set-material_tally_082, generate
    1,  1344,     1
*Nset, nset=Set-2, generate
    1,  1885,     1
*Elset, elset=Set-2, generate
    1,  1344,     1
** Section: Section-lead
*Solid Section, elset=Set-2, material=Material-lead_082
,
*End Part
**  
*Part, name=Part-right_water
*Node
      1,           7.,          10.,          14.
      2,           7.,           9.,          14.
      3,           7.,           8.,          14.
      4,           7.,           7.,          14.
      5,           7.,           6.,          14.
      6,           7.,           5.,          14.
      7,           7.,           4.,          14.
      8,           7.,          10.,          13.
      9,           7.,           9.,          13.
     10,           7.,           8.,          13.
     11,           7.,           7.,          13.
     12,           7.,           6.,          13.
     13,           7.,           5.,          13.
     14,           7.,           4.,          13.
     15,           7.,          10.,          12.
     16,           7.,           9.,          12.
     17,           7.,           8.,          12.
     18,           7.,           7.,          12.
     19,           7.,           6.,          12.
     20,           7.,           5.,          12.
** ... 715 like lines cut
*Element, type=C3D8R
  1, 106, 107, 114, 113,   1,   2,   9,   8
  2, 107, 108, 115, 114,   2,   3,  10,   9
  3, 108, 109, 116, 115,   3,   4,  11,  10
  4, 109, 110, 117, 116,   4,   5,  12,  11
  5, 110, 111, 118, 117,   5,   6,  13,  12
  6, 111, 112, 119, 118,   6,   7,  14,  13
  7, 113, 114, 121, 120,   8,   9,  16,  15
  8, 114, 115, 122, 121,   9,  10,  17,  16
  9, 115, 116, 123, 122,  10,  11,  18,  17
 10, 116, 117, 124, 123,  11,  12,  19,  18
 11, 117, 118, 125, 124,  12,  13,  20,  19
 12, 118, 119, 126, 125,  13,  14,  21,  20
 13, 120, 121, 128, 127,  15,  16,  23,  22
 14, 121, 122, 129, 128,  16,  17,  24,  23
 15, 122, 123, 130, 129,  17,  18,  25,  24
 16, 123, 124, 131, 130,  18,  19,  26,  25
 17, 124, 125, 132, 131,  19,  20,  27,  26
 18, 125, 126, 133, 132,  20,  21,  28,  27
 19, 127, 128, 135, 134,  22,  23,  30,  29
 20, 128, 129, 136, 135,  23,  24,  31,  30
** ... 484 like lines cut
*Nset, nset=Set-material_tally_01, generate
   1,  735,    1
*Elset, elset=Set-material_tally_01, generate
   1,  504,    1
*Nset, nset=Set-2, generate
   1,  735,    1
*Elset, elset=Set-2, generate
   1,  504,    1
** Section: Section-water
*Solid Section, elset=Set-2, material=Material-water_01
,
*End Part
**  
*Part, name=Part-stiffener
*Node
      1,           8.,          16.,          14.
      2,           8.,         15.5,          14.
      3,           8.,          15.,          14.
      4,           8.,         14.5,          14.
      5,           8.,          14.,          14.
      6,           8.,         13.5,          14.
      7,           8.,          13.,          14.
      8,           8.,         12.5,          14.
      9,           8.,          12.,          14.
     10,           8.,         11.5,          14.
     11,           8.,          11.,          14.
     12,           8.,         10.5,          14.
     13,           8.,          10.,          14.
     14,           8.,          9.5,          14.
     15,           8.,           9.,          14.
     16,           8.,          8.5,          14.
     17,           8.,           8.,          14.
     18,           8.,          7.5,          14.
     19,           8.,           7.,          14.
     20,           8.,          6.5,          14.
** ... 4185 like lines cut
*Element, type=C3D8R
   1,  842,  843,  872,  871,    1,    2,   31,   30
   2,  843,  844,  873,  872,    2,    3,   32,   31
   3,  844,  845,  874,  873,    3,    4,   33,   32
   4,  845,  846,  875,  874,    4,    5,   34,   33
   5,  846,  847,  876,  875,    5,    6,   35,   34
   6,  847,  848,  877,  876,    6,    7,   36,   35
   7,  848,  849,  878,  877,    7,    8,   37,   36
   8,  849,  850,  879,  878,    8,    9,   38,   37
   9,  850,  851,  880,  879,    9,   10,   39,   38
  10,  851,  852,  881,  880,   10,   11,   40,   39
  11,  852,  853,  882,  881,   11,   12,   41,   40
  12,  853,  854,  883,  882,   12,   13,   42,   41
  13,  854,  855,  884,  883,   13,   14,   43,   42
  14,  855,  856,  885,  884,   14,   15,   44,   43
  15,  856,  857,  886,  885,   15,   16,   45,   44
  16,  857,  858,  887,  886,   16,   17,   46,   45
  17,  858,  859,  888,  887,   17,   18,   47,   46
  18,  859,  860,  889,  888,   18,   19,   48,   47
  19,  860,  861,  890,  889,   19,   20,   49,   48
  20,  861,  862,  891,  890,   20,   21,   50,   49
** ... 3116 like lines cut
*Nset, nset=Set-material_tally_026, generate
    1,  4205,     1
*Elset, elset=Set-material_tally_source_026, generate
    1,  3136,     1
*Nset, nset=Set-2, generate
    1,  4205,     1
*Elset, elset=Set-2, generate
    1,  3136,     1
** Section: Section-iron
*Solid Section, elset=Set-2, material=Material-iron_026
,
*End Part
**  
**
** ASSEMBLY
**
*Assembly, name=Assembly
**  
*Instance, name=Part-stiffener-1, part=Part-stiffener
         -7.,           0.,           0.
*End Instance
**  
*Instance, name=Part-left_liner-1, part=Part-left_liner
*End Instance
**  
*Instance, name=Part-left_water-1, part=Part-left_water
*End Instance
**  
*Instance, name=Part-front_wall-1, part=Part-front_wall
*End Instance
**  
*Instance, name=Part-left_air-1, part=Part-left_air
*End Instance
**  
*Instance, name=Part-back_wall-1, part=Part-back_wall
*End Instance
**  
*Instance, name=Part-right_liner-1, part=Part-right_liner
*End Instance
**  
*Instance, name=Part-right_water-1, part=Part-right_water
*End Instance
**  
*Instance, name=Part-right_air-1, part=Part-right_air
*End Instance
**  
*End Assembly
** 
** MATERIALS
** 
*Material, name=Material-air_02
*Density
 -0.001205,
*Material, name=Material-iron_026
*Density
 -7.874,
*Material, name=Material-lead_082
*Density
 -11.35,
*Material, name=Material-water_01
*Density
-1.,
